LIG_h.pdb
 OpenBabel08172101563D

 42 44  0  0  0  0  0  0  0  0999 V2000
    0.0000    0.0000    0.0000 C   0  0  0  0  0  0  0  0  0  0  0  0
    0.8330    1.2680   -0.0200 C   0  0  0  0  0  0  0  0  0  0  0  0
    2.1740    1.2840   -0.0080 C   0  0  0  0  0  0  0  0  0  0  0  0
    2.8560    2.4400   -0.0260 C   0  0  0  0  0  0  0  0  0  0  0  0
    2.2480    3.6440   -0.0590 C   0  0  0  0  0  0  0  0  0  0  0  0
    0.8960    3.6230   -0.0710 C   0  0  0  0  0  0  0  0  0  0  0  0
    0.2170    2.4620   -0.0520 C   0  0  0  0  0  0  0  0  0  0  0  0
   -0.8870    2.4650   -0.0620 H   0  0  0  0  0  0  0  0  0  0  0  0
    0.2060    4.7760   -0.1030 C   0  0  0  0  0  0  0  0  0  0  0  0
    0.8510    5.9480   -0.1230 C   0  0  0  0  0  0  0  0  0  0  0  0
    2.1940    5.9800   -0.1110 C   0  0  0  0  0  0  0  0  0  0  0  0
    2.9030    4.8310   -0.0790 C   0  0  0  0  0  0  0  0  0  0  0  0
    4.2480    4.9560   -0.0680 C   0  0  0  0  0  0  0  0  0  0  0  0
    4.8950    6.1370   -0.0880 C   0  0  0  0  0  0  0  0  0  0  0  0
    4.1530    7.2540   -0.1200 C   0  0  0  0  0  0  0  0  0  0  0  0
    2.8160    7.1730   -0.1310 C   0  0  0  0  0  0  0  0  0  0  0  0
    2.2390    8.1150   -0.1570 H   0  0  0  0  0  0  0  0  0  0  0  0
    4.6160    8.2530   -0.1380 H   0  0  0  0  0  0  0  0  0  0  0  0
    6.4140    6.1480   -0.0740 C   0  0  0  0  0  0  0  0  0  0  0  0
    7.1090    7.5180   -0.1060 C   0  0  0  0  0  0  0  0  0  0  0  0
    8.6390    7.3770   -0.0900 C   0  0  0  0  0  0  0  0  0  0  0  0
    9.1330    8.3760   -0.1140 H   0  0  0  0  0  0  0  0  0  0  0  0
    8.9860    6.8510    0.8290 H   0  0  0  0  0  0  0  0  0  0  0  0
    9.0000    6.8010   -0.9730 H   0  0  0  0  0  0  0  0  0  0  0  0
    6.8150    8.0740   -1.0290 H   0  0  0  0  0  0  0  0  0  0  0  0
    6.8010    8.1230    0.7810 H   0  0  0  0  0  0  0  0  0  0  0  0
    6.7480    5.6090    0.8440 H   0  0  0  0  0  0  0  0  0  0  0  0
    6.7660    5.5580   -0.9530 H   0  0  0  0  0  0  0  0  0  0  0  0
    4.9080    4.0780   -0.0420 H   0  0  0  0  0  0  0  0  0  0  0  0
    0.2530    6.8760   -0.1490 H   0  0  0  0  0  0  0  0  0  0  0  0
   -0.8980    4.7860   -0.1140 H   0  0  0  0  0  0  0  0  0  0  0  0
    3.9500    2.3280   -0.0140 H   0  0  0  0  0  0  0  0  0  0  0  0
    2.7460    0.3420    0.0190 H   0  0  0  0  0  0  0  0  0  0  0  0
    0.7570   -1.3370    0.0340 C   0  0  0  0  0  0  0  0  0  0  0  0
   -0.2060   -2.5330    0.0510 C   0  0  0  0  0  0  0  0  0  0  0  0
    0.3530   -3.4970    0.0760 H   0  0  0  0  0  0  0  0  0  0  0  0
   -0.8700   -2.5040    0.9460 H   0  0  0  0  0  0  0  0  0  0  0  0
   -0.8540   -2.5410   -0.8560 H   0  0  0  0  0  0  0  0  0  0  0  0
    1.4000   -1.3870    0.9460 H   0  0  0  0  0  0  0  0  0  0  0  0
    1.4160   -1.4250   -0.8630 H   0  0  0  0  0  0  0  0  0  0  0  0
   -0.6680    0.0480    0.8920 H   0  0  0  0  0  0  0  0  0  0  0  0
   -0.6530    0.0100   -0.9050 H   0  0  0  0  0  0  0  0  0  0  0  0
  1 34  1  0  0  0  0
  1 41  1  0  0  0  0
  2  3  1  0  0  0  0
  2  1  1  0  0  0  0
  3 33  1  0  0  0  0
  4 32  1  0  0  0  0
  4  3  2  0  0  0  0
  5  4  1  0  0  0  0
  6  5  1  0  0  0  0
  6  7  1  0  0  0  0
  7  2  2  0  0  0  0
  8  7  1  0  0  0  0
  9  6  2  0  0  0  0
 10 11  2  0  0  0  0
 10  9  1  0  0  0  0
 11 12  1  0  0  0  0
 12 13  1  0  0  0  0
 12  5  2  0  0  0  0
 13 29  1  0  0  0  0
 14 19  1  0  0  0  0
 14 13  2  0  0  0  0
 15 14  1  0  0  0  0
 16 15  2  0  0  0  0
 16 11  1  0  0  0  0
 17 16  1  0  0  0  0
 18 15  1  0  0  0  0
 19 27  1  0  0  0  0
 20 21  1  0  0  0  0
 20 19  1  0  0  0  0
 20 26  1  0  0  0  0
 21 23  1  0  0  0  0
 22 21  1  0  0  0  0
 24 21  1  0  0  0  0
 25 20  1  0  0  0  0
 28 19  1  0  0  0  0
 30 10  1  0  0  0  0
 31  9  1  0  0  0  0
 34 35  1  0  0  0  0
 34 39  1  0  0  0  0
 35 36  1  0  0  0  0
 35 37  1  0  0  0  0
 38 35  1  0  0  0  0
 40 34  1  0  0  0  0
 42  1  1  0  0  0  0
M  END
