LIG_h.pdb
 OpenBabel08172101563D

 36 37  0  0  0  0  0  0  0  0999 V2000
    0.0000    0.0000    0.0000 C   0  0  0  0  0  0  0  0  0  0  0  0
   -0.5890    1.3980   -0.0320 C   0  0  0  0  0  0  0  0  0  0  0  0
   -1.9270    1.5350   -0.0750 C   0  0  0  0  0  0  0  0  0  0  0  0
   -2.5040    2.7460   -0.1050 C   0  0  0  0  0  0  0  0  0  0  0  0
   -1.7510    3.8590   -0.0920 C   0  0  0  0  0  0  0  0  0  0  0  0
   -0.4100    3.7450   -0.0480 C   0  0  0  0  0  0  0  0  0  0  0  0
    0.1520    2.5210   -0.0190 C   0  0  0  0  0  0  0  0  0  0  0  0
    1.2490    2.4450    0.0170 H   0  0  0  0  0  0  0  0  0  0  0  0
    0.3420    4.8600   -0.0350 C   0  0  0  0  0  0  0  0  0  0  0  0
   -0.1990    6.0920   -0.0630 C   0  0  0  0  0  0  0  0  0  0  0  0
   -1.5390    6.1830   -0.1070 C   0  0  0  0  0  0  0  0  0  0  0  0
   -2.3060    5.0820   -0.1210 C   0  0  0  0  0  0  0  0  0  0  0  0
   -3.4040    5.2010   -0.1570 H   0  0  0  0  0  0  0  0  0  0  0  0
   -2.0430    7.1620   -0.1320 H   0  0  0  0  0  0  0  0  0  0  0  0
    0.7220    7.2990   -0.0450 C   0  0  0  0  0  0  0  0  0  0  0  0
    0.0640    8.6870   -0.0650 C   0  0  0  0  0  0  0  0  0  0  0  0
    1.1120    9.8100   -0.0380 C   0  0  0  0  0  0  0  0  0  0  0  0
    1.7890    9.7510   -0.9210 H   0  0  0  0  0  0  0  0  0  0  0  0
    0.6240   10.8130   -0.0540 H   0  0  0  0  0  0  0  0  0  0  0  0
    1.7390    9.7550    0.8810 H   0  0  0  0  0  0  0  0  0  0  0  0
   -0.5550    8.8030   -0.9870 H   0  0  0  0  0  0  0  0  0  0  0  0
   -0.6040    8.8050    0.8220 H   0  0  0  0  0  0  0  0  0  0  0  0
    1.3570    7.2260    0.8700 H   0  0  0  0  0  0  0  0  0  0  0  0
    1.4010    7.2200   -0.9270 H   0  0  0  0  0  0  0  0  0  0  0  0
    1.4420    4.7790    0.0010 H   0  0  0  0  0  0  0  0  0  0  0  0
   -3.6060    2.8070   -0.1410 H   0  0  0  0  0  0  0  0  0  0  0  0
   -2.5670    0.6370   -0.0870 H   0  0  0  0  0  0  0  0  0  0  0  0
    1.5320   -0.1220    0.0230 C   0  0  0  0  0  0  0  0  0  0  0  0
    1.9820   -1.5910    0.0450 C   0  0  0  0  0  0  0  0  0  0  0  0
    3.0940   -1.6680    0.0630 H   0  0  0  0  0  0  0  0  0  0  0  0
    1.5920   -2.1180    0.9460 H   0  0  0  0  0  0  0  0  0  0  0  0
    1.6200   -2.1370   -0.8560 H   0  0  0  0  0  0  0  0  0  0  0  0
    1.9420    0.3860    0.9290 H   0  0  0  0  0  0  0  0  0  0  0  0
    1.9670    0.3680   -0.8810 H   0  0  0  0  0  0  0  0  0  0  0  0
   -0.4070   -0.5170    0.9010 H   0  0  0  0  0  0  0  0  0  0  0  0
   -0.3800   -0.5470   -0.8950 H   0  0  0  0  0  0  0  0  0  0  0  0
  1 28  1  0  0  0  0
  1 35  1  0  0  0  0
  2  7  1  0  0  0  0
  2  1  1  0  0  0  0
  3  2  2  0  0  0  0
  4  5  2  0  0  0  0
  4  3  1  0  0  0  0
  5  6  1  0  0  0  0
  6  9  1  0  0  0  0
  6  7  2  0  0  0  0
  7  8  1  0  0  0  0
  9 25  1  0  0  0  0
 10 15  1  0  0  0  0
 10  9  2  0  0  0  0
 11 10  1  0  0  0  0
 12 11  2  0  0  0  0
 12  5  1  0  0  0  0
 13 12  1  0  0  0  0
 14 11  1  0  0  0  0
 15 23  1  0  0  0  0
 16 15  1  0  0  0  0
 16 17  1  0  0  0  0
 16 22  1  0  0  0  0
 17 20  1  0  0  0  0
 18 17  1  0  0  0  0
 19 17  1  0  0  0  0
 21 16  1  0  0  0  0
 24 15  1  0  0  0  0
 26  4  1  0  0  0  0
 27  3  1  0  0  0  0
 28 29  1  0  0  0  0
 28 33  1  0  0  0  0
 29 30  1  0  0  0  0
 29 31  1  0  0  0  0
 32 29  1  0  0  0  0
 34 28  1  0  0  0  0
 36  1  1  0  0  0  0
M  END
