LIG_h.pdb
 OpenBabel08172101563D

 36 37  0  0  0  0  0  0  0  0999 V2000
    0.0000    0.0000    0.0000 C   0  0  0  0  0  0  0  0  0  0  0  0
   -1.4450    0.3090   -0.3760 C   0  0  0  0  0  0  0  0  0  0  0  0
   -2.2580   -0.6700   -0.8170 C   0  0  0  0  0  0  0  0  0  0  0  0
   -3.5310   -0.4320   -1.1590 C   0  0  0  0  0  0  0  0  0  0  0  0
   -4.0190    0.8110   -1.0640 C   0  0  0  0  0  0  0  0  0  0  0  0
   -3.2330    1.8090   -0.6260 C   0  0  0  0  0  0  0  0  0  0  0  0
   -1.9500    1.5630   -0.2810 C   0  0  0  0  0  0  0  0  0  0  0  0
   -1.2120    2.6070    0.1520 C   0  0  0  0  0  0  0  0  0  0  0  0
   -1.6990    3.8570    0.2460 C   0  0  0  0  0  0  0  0  0  0  0  0
   -2.9760    4.0700   -0.1050 C   0  0  0  0  0  0  0  0  0  0  0  0
   -3.7350    3.0540   -0.5360 C   0  0  0  0  0  0  0  0  0  0  0  0
   -4.7820    3.2680   -0.8160 H   0  0  0  0  0  0  0  0  0  0  0  0
   -3.4060    5.0840   -0.0410 H   0  0  0  0  0  0  0  0  0  0  0  0
   -0.8370    5.0040    0.7310 C   0  0  0  0  0  0  0  0  0  0  0  0
   -0.2980    5.8540   -0.4310 C   0  0  0  0  0  0  0  0  0  0  0  0
    0.6120    5.0590   -1.3780 C   0  0  0  0  0  0  0  0  0  0  0  0
    1.0350    5.7190   -2.1700 H   0  0  0  0  0  0  0  0  0  0  0  0
    1.4660    4.6040   -0.8250 H   0  0  0  0  0  0  0  0  0  0  0  0
    0.0560    4.2410   -1.8900 H   0  0  0  0  0  0  0  0  0  0  0  0
   -1.1490    6.2860   -1.0110 H   0  0  0  0  0  0  0  0  0  0  0  0
    0.2790    6.7140   -0.0150 H   0  0  0  0  0  0  0  0  0  0  0  0
   -1.4390    5.6460    1.4170 H   0  0  0  0  0  0  0  0  0  0  0  0
    0.0160    4.6280    1.3450 H   0  0  0  0  0  0  0  0  0  0  0  0
   -0.1600    2.4770    0.4460 H   0  0  0  0  0  0  0  0  0  0  0  0
   -5.0700    0.9880   -1.3510 H   0  0  0  0  0  0  0  0  0  0  0  0
   -4.1750   -1.2540   -1.5180 H   0  0  0  0  0  0  0  0  0  0  0  0
   -1.9060   -1.7080   -0.9150 H   0  0  0  0  0  0  0  0  0  0  0  0
    0.4990   -1.4480   -0.1510 C   0  0  0  0  0  0  0  0  0  0  0  0
    1.9730   -1.5830    0.2610 C   0  0  0  0  0  0  0  0  0  0  0  0
    2.6290   -0.9380   -0.3670 H   0  0  0  0  0  0  0  0  0  0  0  0
    2.1230   -1.2910    1.3260 H   0  0  0  0  0  0  0  0  0  0  0  0
    2.3250   -2.6350    0.1480 H   0  0  0  0  0  0  0  0  0  0  0  0
   -0.1080   -2.1320    0.4900 H   0  0  0  0  0  0  0  0  0  0  0  0
    0.4020   -1.7790   -1.2130 H   0  0  0  0  0  0  0  0  0  0  0  0
    0.6620    0.6370   -0.6330 H   0  0  0  0  0  0  0  0  0  0  0  0
    0.1450    0.2840    1.0690 H   0  0  0  0  0  0  0  0  0  0  0  0
  1 36  1  0  0  0  0
  2  7  1  0  0  0  0
  2  1  1  0  0  0  0
  3  2  2  0  0  0  0
  4  5  2  0  0  0  0
  4  3  1  0  0  0  0
  5  6  1  0  0  0  0
  6 11  2  0  0  0  0
  6  7  1  0  0  0  0
  7  8  2  0  0  0  0
  8  9  1  0  0  0  0
  8 24  1  0  0  0  0
  9 14  1  0  0  0  0
 10 13  1  0  0  0  0
 10  9  2  0  0  0  0
 11 10  1  0  0  0  0
 12 11  1  0  0  0  0
 14 23  1  0  0  0  0
 14 22  1  0  0  0  0
 15 21  1  0  0  0  0
 15 14  1  0  0  0  0
 16 18  1  0  0  0  0
 16 15  1  0  0  0  0
 17 16  1  0  0  0  0
 19 16  1  0  0  0  0
 20 15  1  0  0  0  0
 25  5  1  0  0  0  0
 26  4  1  0  0  0  0
 27  3  1  0  0  0  0
 28  1  1  0  0  0  0
 28 29  1  0  0  0  0
 28 33  1  0  0  0  0
 29 31  1  0  0  0  0
 30 29  1  0  0  0  0
 32 29  1  0  0  0  0
 34 28  1  0  0  0  0
 35  1  1  0  0  0  0
M  END
