LIG_h.pdb
 OpenBabel08172101563D

 42 44  0  0  0  0  0  0  0  0999 V2000
    0.0000    0.0000    0.0000 C   0  0  0  0  0  0  0  0  0  0  0  0
   -0.6160    1.3870   -0.0070 C   0  0  0  0  0  0  0  0  0  0  0  0
   -1.9570    1.4990   -0.0100 C   0  0  0  0  0  0  0  0  0  0  0  0
   -2.5550    2.6990   -0.0160 C   0  0  0  0  0  0  0  0  0  0  0  0
   -1.8220    3.8250   -0.0200 C   0  0  0  0  0  0  0  0  0  0  0  0
   -0.4810    3.7380   -0.0160 C   0  0  0  0  0  0  0  0  0  0  0  0
    0.1030    2.5240   -0.0100 C   0  0  0  0  0  0  0  0  0  0  0  0
    1.2020    2.4640   -0.0080 H   0  0  0  0  0  0  0  0  0  0  0  0
    0.2480    4.8690   -0.0200 C   0  0  0  0  0  0  0  0  0  0  0  0
   -0.3090    6.0970   -0.0260 C   0  0  0  0  0  0  0  0  0  0  0  0
   -1.6580    6.1640   -0.0290 C   0  0  0  0  0  0  0  0  0  0  0  0
   -2.3970    5.0390   -0.0260 C   0  0  0  0  0  0  0  0  0  0  0  0
   -3.4990    5.1090   -0.0280 H   0  0  0  0  0  0  0  0  0  0  0  0
   -2.2760    7.3580   -0.0350 C   0  0  0  0  0  0  0  0  0  0  0  0
   -1.5540    8.4850   -0.0380 C   0  0  0  0  0  0  0  0  0  0  0  0
   -0.2170    8.4130   -0.0350 C   0  0  0  0  0  0  0  0  0  0  0  0
    0.4310    7.2330   -0.0290 C   0  0  0  0  0  0  0  0  0  0  0  0
    1.9560    7.1930   -0.0260 C   0  0  0  0  0  0  0  0  0  0  0  0
    2.7200    8.5290   -0.0300 C   0  0  0  0  0  0  0  0  0  0  0  0
    4.2410    8.3100   -0.0260 C   0  0  0  0  0  0  0  0  0  0  0  0
    4.7850    9.2830   -0.0290 H   0  0  0  0  0  0  0  0  0  0  0  0
    4.5650    7.7450    0.8780 H   0  0  0  0  0  0  0  0  0  0  0  0
    4.5690    7.7370   -0.9240 H   0  0  0  0  0  0  0  0  0  0  0  0
    2.4550    9.1200   -0.9390 H   0  0  0  0  0  0  0  0  0  0  0  0
    2.4510    9.1280    0.8730 H   0  0  0  0  0  0  0  0  0  0  0  0
    2.2830    6.6370    0.8840 H   0  0  0  0  0  0  0  0  0  0  0  0
    2.2860    6.6290   -0.9290 H   0  0  0  0  0  0  0  0  0  0  0  0
    0.3290    9.3690   -0.0380 H   0  0  0  0  0  0  0  0  0  0  0  0
   -2.0600    9.4670   -0.0430 H   0  0  0  0  0  0  0  0  0  0  0  0
   -3.3770    7.4390   -0.0380 H   0  0  0  0  0  0  0  0  0  0  0  0
    1.3440    4.7560   -0.0170 H   0  0  0  0  0  0  0  0  0  0  0  0
   -3.6590    2.7390   -0.0190 H   0  0  0  0  0  0  0  0  0  0  0  0
   -2.5800    0.5880   -0.0080 H   0  0  0  0  0  0  0  0  0  0  0  0
    1.5340   -0.0930    0.0040 C   0  0  0  0  0  0  0  0  0  0  0  0
    2.0120   -1.5530    0.0120 C   0  0  0  0  0  0  0  0  0  0  0  0
    3.1250   -1.6100    0.0150 H   0  0  0  0  0  0  0  0  0  0  0  0
    1.6440   -2.0930    0.9150 H   0  0  0  0  0  0  0  0  0  0  0  0
    1.6490   -2.1010   -0.8880 H   0  0  0  0  0  0  0  0  0  0  0  0
    1.9450    0.4170    0.9080 H   0  0  0  0  0  0  0  0  0  0  0  0
    1.9490    0.4100   -0.9020 H   0  0  0  0  0  0  0  0  0  0  0  0
   -0.3850   -0.5360    0.9000 H   0  0  0  0  0  0  0  0  0  0  0  0
   -0.3810   -0.5430   -0.8970 H   0  0  0  0  0  0  0  0  0  0  0  0
  1 34  1  0  0  0  0
  1 41  1  0  0  0  0
  2  1  1  0  0  0  0
  3 33  1  0  0  0  0
  3  2  1  0  0  0  0
  4  3  2  0  0  0  0
  5  6  1  0  0  0  0
  5  4  1  0  0  0  0
  6  7  1  0  0  0  0
  7  8  1  0  0  0  0
  7  2  2  0  0  0  0
  9 31  1  0  0  0  0
  9  6  2  0  0  0  0
 10  9  1  0  0  0  0
 11 12  1  0  0  0  0
 11 10  1  0  0  0  0
 12  5  2  0  0  0  0
 13 12  1  0  0  0  0
 14 11  2  0  0  0  0
 15 16  2  0  0  0  0
 15 14  1  0  0  0  0
 16 17  1  0  0  0  0
 17 18  1  0  0  0  0
 17 10  2  0  0  0  0
 18 26  1  0  0  0  0
 19 18  1  0  0  0  0
 19 20  1  0  0  0  0
 19 25  1  0  0  0  0
 20 22  1  0  0  0  0
 21 20  1  0  0  0  0
 23 20  1  0  0  0  0
 24 19  1  0  0  0  0
 27 18  1  0  0  0  0
 28 16  1  0  0  0  0
 29 15  1  0  0  0  0
 30 14  1  0  0  0  0
 32  4  1  0  0  0  0
 34 35  1  0  0  0  0
 34 39  1  0  0  0  0
 35 36  1  0  0  0  0
 35 37  1  0  0  0  0
 38 35  1  0  0  0  0
 40 34  1  0  0  0  0
 42  1  1  0  0  0  0
M  END
