LIG_h.pdb
 OpenBabel08172101563D

 42 44  0  0  0  0  0  0  0  0999 V2000
    0.0000    0.0000    0.0000 C   0  0  0  0  0  0  0  0  0  0  0  0
   -0.5910    1.3980   -0.0070 C   0  0  0  0  0  0  0  0  0  0  0  0
   -1.9290    1.5350   -0.0120 C   0  0  0  0  0  0  0  0  0  0  0  0
   -2.5070    2.7460   -0.0190 C   0  0  0  0  0  0  0  0  0  0  0  0
   -1.7570    3.8620   -0.0210 C   0  0  0  0  0  0  0  0  0  0  0  0
   -0.4180    3.7430   -0.0170 C   0  0  0  0  0  0  0  0  0  0  0  0
    0.1480    2.5220   -0.0100 C   0  0  0  0  0  0  0  0  0  0  0  0
    1.2470    2.4470   -0.0070 H   0  0  0  0  0  0  0  0  0  0  0  0
    0.3250    4.8630   -0.0190 C   0  0  0  0  0  0  0  0  0  0  0  0
   -0.2400    6.0840   -0.0260 C   0  0  0  0  0  0  0  0  0  0  0  0
   -1.5840    6.2180   -0.0310 C   0  0  0  0  0  0  0  0  0  0  0  0
   -2.3160    5.0860   -0.0280 C   0  0  0  0  0  0  0  0  0  0  0  0
   -3.4160    5.1310   -0.0310 H   0  0  0  0  0  0  0  0  0  0  0  0
   -2.1490    7.4500   -0.0370 C   0  0  0  0  0  0  0  0  0  0  0  0
   -1.3340    8.5220   -0.0400 C   0  0  0  0  0  0  0  0  0  0  0  0
   -0.0010    8.3960   -0.0350 C   0  0  0  0  0  0  0  0  0  0  0  0
    0.5460    7.1740   -0.0280 C   0  0  0  0  0  0  0  0  0  0  0  0
    1.6480    7.0930   -0.0250 H   0  0  0  0  0  0  0  0  0  0  0  0
    0.6440    9.2920   -0.0370 H   0  0  0  0  0  0  0  0  0  0  0  0
   -1.7330    9.5480   -0.0450 H   0  0  0  0  0  0  0  0  0  0  0  0
   -3.6630    7.6350   -0.0430 C   0  0  0  0  0  0  0  0  0  0  0  0
   -4.2220    9.0690   -0.0500 C   0  0  0  0  0  0  0  0  0  0  0  0
   -5.7590    9.0760   -0.0550 C   0  0  0  0  0  0  0  0  0  0  0  0
   -6.1540   10.1180   -0.0600 H   0  0  0  0  0  0  0  0  0  0  0  0
   -6.1630    8.5580   -0.9550 H   0  0  0  0  0  0  0  0  0  0  0  0
   -6.1680    8.5650    0.8470 H   0  0  0  0  0  0  0  0  0  0  0  0
   -3.8680    9.6150   -0.9580 H   0  0  0  0  0  0  0  0  0  0  0  0
   -3.8730    9.6220    0.8550 H   0  0  0  0  0  0  0  0  0  0  0  0
   -4.0680    7.1250   -0.9480 H   0  0  0  0  0  0  0  0  0  0  0  0
   -4.0730    7.1320    0.8650 H   0  0  0  0  0  0  0  0  0  0  0  0
    1.4260    4.7740   -0.0160 H   0  0  0  0  0  0  0  0  0  0  0  0
   -3.6090    2.8020   -0.0220 H   0  0  0  0  0  0  0  0  0  0  0  0
   -2.5690    0.6360   -0.0100 H   0  0  0  0  0  0  0  0  0  0  0  0
    1.5320   -0.1200    0.0040 C   0  0  0  0  0  0  0  0  0  0  0  0
    1.9840   -1.5880    0.0110 C   0  0  0  0  0  0  0  0  0  0  0  0
    3.0970   -1.6640    0.0140 H   0  0  0  0  0  0  0  0  0  0  0  0
    1.6070   -2.1220    0.9140 H   0  0  0  0  0  0  0  0  0  0  0  0
    1.6120   -2.1290   -0.8890 H   0  0  0  0  0  0  0  0  0  0  0  0
    1.9520    0.3830    0.9080 H   0  0  0  0  0  0  0  0  0  0  0  0
    1.9560    0.3760   -0.9020 H   0  0  0  0  0  0  0  0  0  0  0  0
   -0.3950   -0.5280    0.9000 H   0  0  0  0  0  0  0  0  0  0  0  0
   -0.3910   -0.5360   -0.8970 H   0  0  0  0  0  0  0  0  0  0  0  0
  1 34  1  0  0  0  0
  1 41  1  0  0  0  0
  2  1  1  0  0  0  0
  3 33  1  0  0  0  0
  3  2  2  0  0  0  0
  4  3  1  0  0  0  0
  5  4  2  0  0  0  0
  5  6  1  0  0  0  0
  6  7  2  0  0  0  0
  7  2  1  0  0  0  0
  7  8  1  0  0  0  0
  9  6  1  0  0  0  0
  9 31  1  0  0  0  0
 10  9  2  0  0  0  0
 11 12  2  0  0  0  0
 11 10  1  0  0  0  0
 12  5  1  0  0  0  0
 13 12  1  0  0  0  0
 14 11  1  0  0  0  0
 15 14  2  0  0  0  0
 15 16  1  0  0  0  0
 16 17  2  0  0  0  0
 17 10  1  0  0  0  0
 17 18  1  0  0  0  0
 19 16  1  0  0  0  0
 20 15  1  0  0  0  0
 21 14  1  0  0  0  0
 21 30  1  0  0  0  0
 22 21  1  0  0  0  0
 22 28  1  0  0  0  0
 23 22  1  0  0  0  0
 23 26  1  0  0  0  0
 24 23  1  0  0  0  0
 25 23  1  0  0  0  0
 27 22  1  0  0  0  0
 29 21  1  0  0  0  0
 32  4  1  0  0  0  0
 34 35  1  0  0  0  0
 34 39  1  0  0  0  0
 35 36  1  0  0  0  0
 35 37  1  0  0  0  0
 38 35  1  0  0  0  0
 40 34  1  0  0  0  0
 42  1  1  0  0  0  0
M  END
