LIG_h.pdb
 OpenBabel08172101563D

 30 30  0  0  0  0  0  0  0  0999 V2000
    0.0000    0.0000    0.0000 C   0  0  0  0  0  0  0  0  0  0  0  0
    0.8250    1.2400   -0.2710 C   0  0  0  0  0  0  0  0  0  0  0  0
    1.8430    1.2240   -1.1460 C   0  0  0  0  0  0  0  0  0  0  0  0
    2.5550    2.3330   -1.4060 C   0  0  0  0  0  0  0  0  0  0  0  0
    2.2740    3.4970   -0.7950 C   0  0  0  0  0  0  0  0  0  0  0  0
    1.2450    3.5110    0.0720 C   0  0  0  0  0  0  0  0  0  0  0  0
    0.5360    2.4040    0.3350 C   0  0  0  0  0  0  0  0  0  0  0  0
   -0.3030    2.4570    1.0470 H   0  0  0  0  0  0  0  0  0  0  0  0
    0.9650    4.4480    0.5840 H   0  0  0  0  0  0  0  0  0  0  0  0
    3.0720    4.7600   -1.0550 C   0  0  0  0  0  0  0  0  0  0  0  0
    4.5940    4.5790   -0.9310 C   0  0  0  0  0  0  0  0  0  0  0  0
    5.3230    5.9230   -0.7780 C   0  0  0  0  0  0  0  0  0  0  0  0
    6.4290    5.7900   -0.8170 H   0  0  0  0  0  0  0  0  0  0  0  0
    5.0410    6.6380   -1.5840 H   0  0  0  0  0  0  0  0  0  0  0  0
    5.0830    6.4030    0.2000 H   0  0  0  0  0  0  0  0  0  0  0  0
    4.8240    3.9520   -0.0370 H   0  0  0  0  0  0  0  0  0  0  0  0
    4.9920    4.0470   -1.8280 H   0  0  0  0  0  0  0  0  0  0  0  0
    2.8160    5.1570   -2.0640 H   0  0  0  0  0  0  0  0  0  0  0  0
    2.7640    5.5440   -0.3250 H   0  0  0  0  0  0  0  0  0  0  0  0
    3.3760    2.2750   -2.1380 H   0  0  0  0  0  0  0  0  0  0  0  0
    2.0900    0.2840   -1.6670 H   0  0  0  0  0  0  0  0  0  0  0  0
   -0.9740   -0.2970   -1.1520 C   0  0  0  0  0  0  0  0  0  0  0  0
   -1.7690    0.9430   -1.5830 C   0  0  0  0  0  0  0  0  0  0  0  0
   -2.5680    0.6770   -2.3130 H   0  0  0  0  0  0  0  0  0  0  0  0
   -2.2530    1.4330   -0.7070 H   0  0  0  0  0  0  0  0  0  0  0  0
   -1.1140    1.6930   -2.0830 H   0  0  0  0  0  0  0  0  0  0  0  0
   -0.4100   -0.6830   -2.0350 H   0  0  0  0  0  0  0  0  0  0  0  0
   -1.6790   -1.1050   -0.8340 H   0  0  0  0  0  0  0  0  0  0  0  0
    0.6790   -0.8700    0.1620 H   0  0  0  0  0  0  0  0  0  0  0  0
   -0.5790    0.1160    0.9460 H   0  0  0  0  0  0  0  0  0  0  0  0
  1 29  1  0  0  0  0
  1 30  1  0  0  0  0
  2  1  1  0  0  0  0
  2  7  1  0  0  0  0
  3  2  2  0  0  0  0
  4  3  1  0  0  0  0
  4  5  2  0  0  0  0
  5  6  1  0  0  0  0
  6  7  2  0  0  0  0
  6  9  1  0  0  0  0
  7  8  1  0  0  0  0
 10 11  1  0  0  0  0
 10  5  1  0  0  0  0
 10 19  1  0  0  0  0
 11 12  1  0  0  0  0
 11 16  1  0  0  0  0
 12 15  1  0  0  0  0
 13 12  1  0  0  0  0
 14 12  1  0  0  0  0
 17 11  1  0  0  0  0
 18 10  1  0  0  0  0
 20  4  1  0  0  0  0
 21  3  1  0  0  0  0
 22 28  1  0  0  0  0
 22  1  1  0  0  0  0
 23 22  1  0  0  0  0
 23 25  1  0  0  0  0
 24 23  1  0  0  0  0
 26 23  1  0  0  0  0
 27 22  1  0  0  0  0
M  END
