LIG_h.pdb
 OpenBabel08172101563D

 45 46  0  0  0  0  0  0  0  0999 V2000
    0.0000    0.0000    0.0000 C   0  0  0  0  0  0  0  0  0  0  0  0
    1.5070   -0.1980    0.0980 C   0  0  0  0  0  0  0  0  0  0  0  0
    2.2360    0.9020   -0.1420 C   0  0  0  0  0  0  0  0  0  0  0  0
    3.5710    0.8990   -0.0480 C   0  0  0  0  0  0  0  0  0  0  0  0
    4.2370   -0.2070    0.3200 C   0  0  0  0  0  0  0  0  0  0  0  0
    3.5150   -1.3360    0.5220 C   0  0  0  0  0  0  0  0  0  0  0  0
    4.1180   -2.4940    0.8640 C   0  0  0  0  0  0  0  0  0  0  0  0
    3.4350   -3.6310    1.0690 C   0  0  0  0  0  0  0  0  0  0  0  0
    2.1040   -3.6660    0.9100 C   0  0  0  0  0  0  0  0  0  0  0  0
    1.5080   -2.5020    0.5890 C   0  0  0  0  0  0  0  0  0  0  0  0
    2.1650   -1.3420    0.4010 C   0  0  0  0  0  0  0  0  0  0  0  0
    0.4180   -2.5450    0.4690 H   0  0  0  0  0  0  0  0  0  0  0  0
    1.2740   -4.9330    1.0690 C   0  0  0  0  0  0  0  0  0  0  0  0
    2.0170   -6.2800    0.9820 C   0  0  0  0  0  0  0  0  0  0  0  0
    1.0930   -7.5010    0.8200 C   0  0  0  0  0  0  0  0  0  0  0  0
    1.6980   -8.4390    0.8290 H   0  0  0  0  0  0  0  0  0  0  0  0
    0.3380   -7.5820    1.6350 H   0  0  0  0  0  0  0  0  0  0  0  0
    0.5380   -7.4790   -0.1470 H   0  0  0  0  0  0  0  0  0  0  0  0
    2.6910   -6.2600    0.0940 H   0  0  0  0  0  0  0  0  0  0  0  0
    2.6420   -6.4290    1.8960 H   0  0  0  0  0  0  0  0  0  0  0  0
    0.7290   -4.8660    2.0400 H   0  0  0  0  0  0  0  0  0  0  0  0
    0.5080   -4.9350    0.2600 H   0  0  0  0  0  0  0  0  0  0  0  0
    3.9870   -4.5380    1.3570 H   0  0  0  0  0  0  0  0  0  0  0  0
    5.2100   -2.5690    0.9890 H   0  0  0  0  0  0  0  0  0  0  0  0
    5.7520   -0.1710    0.5050 C   0  0  0  0  0  0  0  0  0  0  0  0
    6.4760    1.1880    0.5700 C   0  0  0  0  0  0  0  0  0  0  0  0
    6.1470    1.9940    1.8370 C   0  0  0  0  0  0  0  0  0  0  0  0
    6.2770    3.0940    1.6930 H   0  0  0  0  0  0  0  0  0  0  0  0
    5.1020    1.8090    2.1760 H   0  0  0  0  0  0  0  0  0  0  0  0
    6.8160    1.6980    2.6790 H   0  0  0  0  0  0  0  0  0  0  0  0
    6.2630    1.7810   -0.3490 H   0  0  0  0  0  0  0  0  0  0  0  0
    7.5800    1.0030    0.5560 H   0  0  0  0  0  0  0  0  0  0  0  0
    5.9940   -0.6660    1.4760 H   0  0  0  0  0  0  0  0  0  0  0  0
    6.1980   -0.7620   -0.3320 H   0  0  0  0  0  0  0  0  0  0  0  0
    4.0880    1.8490   -0.2550 H   0  0  0  0  0  0  0  0  0  0  0  0
    1.7210    1.8440   -0.4060 H   0  0  0  0  0  0  0  0  0  0  0  0
   -0.5450    0.8280    1.1820 C   0  0  0  0  0  0  0  0  0  0  0  0
   -1.6050    1.8310    0.7000 C   0  0  0  0  0  0  0  0  0  0  0  0
   -1.1400    2.5780    0.0150 H   0  0  0  0  0  0  0  0  0  0  0  0
   -2.4120    1.3140    0.1330 H   0  0  0  0  0  0  0  0  0  0  0  0
   -2.0790    2.3850    1.5450 H   0  0  0  0  0  0  0  0  0  0  0  0
    0.2760    1.4060    1.6710 H   0  0  0  0  0  0  0  0  0  0  0  0
   -0.9600    0.1580    1.9760 H   0  0  0  0  0  0  0  0  0  0  0  0
   -0.1730    0.5550   -0.9500 H   0  0  0  0  0  0  0  0  0  0  0  0
   -0.6220   -0.9130   -0.1350 H   0  0  0  0  0  0  0  0  0  0  0  0
  1  2  1  0  0  0  0
  1 37  1  0  0  0  0
  2 11  1  0  0  0  0
  3  4  1  0  0  0  0
  3  2  2  0  0  0  0
  4  5  2  0  0  0  0
  5 25  1  0  0  0  0
  5  6  1  0  0  0  0
  6  7  1  0  0  0  0
  7 24  1  0  0  0  0
  7  8  2  0  0  0  0
  8 23  1  0  0  0  0
  9  8  1  0  0  0  0
  9 13  1  0  0  0  0
 10  9  2  0  0  0  0
 11  6  2  0  0  0  0
 11 10  1  0  0  0  0
 12 10  1  0  0  0  0
 13 21  1  0  0  0  0
 14 13  1  0  0  0  0
 14 20  1  0  0  0  0
 15 16  1  0  0  0  0
 15 14  1  0  0  0  0
 15 17  1  0  0  0  0
 18 15  1  0  0  0  0
 19 14  1  0  0  0  0
 22 13  1  0  0  0  0
 25 26  1  0  0  0  0
 25 33  1  0  0  0  0
 26 27  1  0  0  0  0
 27 29  1  0  0  0  0
 27 30  1  0  0  0  0
 28 27  1  0  0  0  0
 31 26  1  0  0  0  0
 32 26  1  0  0  0  0
 34 25  1  0  0  0  0
 35  4  1  0  0  0  0
 36  3  1  0  0  0  0
 37 42  1  0  0  0  0
 37 43  1  0  0  0  0
 38 37  1  0  0  0  0
 38 41  1  0  0  0  0
 39 38  1  0  0  0  0
 40 38  1  0  0  0  0
 44  1  1  0  0  0  0
 45  1  1  0  0  0  0
M  END
