LIG_h.pdb
 OpenBabel08172101563D

 42 44  0  0  0  0  0  0  0  0999 V2000
    0.0000    0.0000    0.0000 C   0  0  0  0  0  0  0  0  0  0  0  0
   -0.6390    1.3770   -0.0070 C   0  0  0  0  0  0  0  0  0  0  0  0
   -1.9800    1.4680   -0.0100 C   0  0  0  0  0  0  0  0  0  0  0  0
   -2.5990    2.6580   -0.0160 C   0  0  0  0  0  0  0  0  0  0  0  0
   -1.8870    3.7980   -0.0180 C   0  0  0  0  0  0  0  0  0  0  0  0
   -0.5430    3.7280   -0.0150 C   0  0  0  0  0  0  0  0  0  0  0  0
    0.0620    2.5250   -0.0090 C   0  0  0  0  0  0  0  0  0  0  0  0
    1.1630    2.4860   -0.0070 H   0  0  0  0  0  0  0  0  0  0  0  0
    0.1720    4.8680   -0.0180 C   0  0  0  0  0  0  0  0  0  0  0  0
   -0.4320    6.0700   -0.0240 C   0  0  0  0  0  0  0  0  0  0  0  0
   -1.7760    6.1390   -0.0270 C   0  0  0  0  0  0  0  0  0  0  0  0
   -2.4910    4.9990   -0.0240 C   0  0  0  0  0  0  0  0  0  0  0  0
   -3.5940    5.0510   -0.0270 H   0  0  0  0  0  0  0  0  0  0  0  0
   -2.3770    7.3420   -0.0320 C   0  0  0  0  0  0  0  0  0  0  0  0
   -1.6780    8.4920   -0.0350 C   0  0  0  0  0  0  0  0  0  0  0  0
   -0.3360    8.4050   -0.0320 C   0  0  0  0  0  0  0  0  0  0  0  0
    0.2780    7.2120   -0.0260 C   0  0  0  0  0  0  0  0  0  0  0  0
    1.3830    7.1880   -0.0240 H   0  0  0  0  0  0  0  0  0  0  0  0
    0.2930    9.3090   -0.0340 H   0  0  0  0  0  0  0  0  0  0  0  0
   -2.4310    9.8100   -0.0420 C   0  0  0  0  0  0  0  0  0  0  0  0
   -1.5950   11.0990   -0.0520 C   0  0  0  0  0  0  0  0  0  0  0  0
   -2.4860   12.3510   -0.0590 C   0  0  0  0  0  0  0  0  0  0  0  0
   -1.8700   13.2800   -0.0660 H   0  0  0  0  0  0  0  0  0  0  0  0
   -3.1410   12.3740   -0.9600 H   0  0  0  0  0  0  0  0  0  0  0  0
   -3.1400   12.3860    0.8420 H   0  0  0  0  0  0  0  0  0  0  0  0
   -0.9410   11.1360    0.8530 H   0  0  0  0  0  0  0  0  0  0  0  0
   -0.9430   11.1230   -0.9570 H   0  0  0  0  0  0  0  0  0  0  0  0
   -3.0940    9.8160   -0.9390 H   0  0  0  0  0  0  0  0  0  0  0  0
   -3.0910    9.8270    0.8580 H   0  0  0  0  0  0  0  0  0  0  0  0
   -3.4790    7.4050   -0.0350 H   0  0  0  0  0  0  0  0  0  0  0  0
    1.2750    4.8190   -0.0150 H   0  0  0  0  0  0  0  0  0  0  0  0
   -3.7030    2.6790   -0.0180 H   0  0  0  0  0  0  0  0  0  0  0  0
   -2.5890    0.5470   -0.0080 H   0  0  0  0  0  0  0  0  0  0  0  0
    1.5350   -0.0680    0.0050 C   0  0  0  0  0  0  0  0  0  0  0  0
    2.0370   -1.5190    0.0120 C   0  0  0  0  0  0  0  0  0  0  0  0
    3.1520   -1.5570    0.0160 H   0  0  0  0  0  0  0  0  0  0  0  0
    1.6780   -2.0660    0.9150 H   0  0  0  0  0  0  0  0  0  0  0  0
    1.6840   -2.0730   -0.8880 H   0  0  0  0  0  0  0  0  0  0  0  0
    1.9370    0.4490    0.9100 H   0  0  0  0  0  0  0  0  0  0  0  0
    1.9430    0.4420   -0.9000 H   0  0  0  0  0  0  0  0  0  0  0  0
   -0.3770   -0.5420    0.8990 H   0  0  0  0  0  0  0  0  0  0  0  0
   -0.3710   -0.5480   -0.8980 H   0  0  0  0  0  0  0  0  0  0  0  0
  1 34  1  0  0  0  0
  1 41  1  0  0  0  0
  2  1  1  0  0  0  0
  3 33  1  0  0  0  0
  3  2  2  0  0  0  0
  4  3  1  0  0  0  0
  5  4  2  0  0  0  0
  5  6  1  0  0  0  0
  6  7  2  0  0  0  0
  7  2  1  0  0  0  0
  7  8  1  0  0  0  0
  9  6  1  0  0  0  0
  9 31  1  0  0  0  0
 10  9  2  0  0  0  0
 11 10  1  0  0  0  0
 11 12  2  0  0  0  0
 12  5  1  0  0  0  0
 13 12  1  0  0  0  0
 14 11  1  0  0  0  0
 15 14  2  0  0  0  0
 15 16  1  0  0  0  0
 16 17  2  0  0  0  0
 17 10  1  0  0  0  0
 17 18  1  0  0  0  0
 19 16  1  0  0  0  0
 20 15  1  0  0  0  0
 20 29  1  0  0  0  0
 21 20  1  0  0  0  0
 21 26  1  0  0  0  0
 22 21  1  0  0  0  0
 22 25  1  0  0  0  0
 23 22  1  0  0  0  0
 24 22  1  0  0  0  0
 27 21  1  0  0  0  0
 28 20  1  0  0  0  0
 30 14  1  0  0  0  0
 32  4  1  0  0  0  0
 34 35  1  0  0  0  0
 34 39  1  0  0  0  0
 35 36  1  0  0  0  0
 35 37  1  0  0  0  0
 38 35  1  0  0  0  0
 40 34  1  0  0  0  0
 42  1  1  0  0  0  0
M  END
